WHERE EAGLES FLY
AIRMASS SATELLITE IMAGES
OUR STORM NAMES
HOW HIGH IS THAT?
FLUFFY OR NOT?
15 MIN RADAR
HI RES SATELLITE STUFF
FOGGYSAT
GLOBAL MONTAGE
RAIN SATELLITES
LIVE LIGHTNING STRIKES
EXPERT IMAGE ANALYSIS
LIVE WEATHER DATA IN LEAGUE FORMAT
LIVE WEATHER PLOTTED ON A MAP
CENTRAL ENGLAND TEMPERATURE
CURRENT RAIN/SNOW
LATEST UK RADAR
LATEST SATELLITE IMAGES
MELT OR SETTLE?
SPACE LAMPPOSTS
THUNDERSTORM SATELLITE
ANIMATED MAPS
STORMS POSSIBLE?
TORNADOES POSSIBLE?
WET N WINDY
RAIN UPWIND OF YOU
HI RES VISIBLE SATELLITE
EYE SPY
ATCHOO! COUGH!
CLOUD CROSS SECTION
METEOROLOGISTS DISCUSSIONS
METEOROLOGISTS DISCUSSIONS
RISK OF FLOODING
RISK OF FROST
RISK OF GALES
AROUND THE WORLD
RISK OF HEATWAVES
PANTS REALLY...
MYWEEK FORECASTS
NEXT MONTH OUTLOOK
RISK OF RAIN
POWDER DAY?
RISK OF SNOW
WEEK AHEAD AVERAGES
UK SINGULARITIES
ADVERSE/SEVERE WEATHER
MODEL SCANNER
MOON AND STARS?
BUMPY LANDINGS?
DUST/AEROSOL CHARTS
DWD ENSEMBLES
JET STREAM FORECAST
SUPER LONG RANGE WEATHER
CHANCE OF RAIN/SNOW
PROBABLY PROBABLE...
TEMPERATURES + ANOMALY
RAIN OR SNOW?
THUNDERSTORMS EXPECTED?
PRESSURE CHARTS
MIST/FOG
ADVERSE WEATHER THIS WEEK
HIGH RES ADVERSE WEATHER
ULTRA HI RES ADV. WEATHER
ICON BASED CHARTS
ICON BASED CHARTS
SUPER ENSEMBLE CHARTS
ULTRA HI RES MODEL
HI RES FOR CARIBBEAN
ULTRA HI RES MODEL
C'EST TRES BIEN
FANTASTIQUE!
WUNDERBAR!
WUNDERBAR!
LATEST ECMWF CHARTS
SURFS UP!
FMI CHARTS
GFS ENSEMBLE DATA
ALL 20 ENSEMBLE RUNS
IMAGES FROM CMC
SUPER LONG RANGE
ALL 18 ENSEMBLE RUNS
LATEST GFS MODEL CHARTS
MIND BLOWING
LOCAL HI-RES GFS CHARTS
METCHECKS MODEL
CMC WAVE MODEL
HI-RES MODEL CHARTS
HIGH RES UK
RAPID REFRESH MODEL
USA RAPID UPDATE
JAPANESE MET
USA MODEL
ONE SMALL STEP
NAVGEM IMAGES
INDIAN MET OFFICE
WAVEWATCH III CHARTS
RAP USA MODEL
GLOBAL HIGH RES MODEL
HEADING MY WAY?
SKI/BEACH FINDER
2 WEEK FORECAST
GFS ENSEMBLE DATA
GFS MODEL OBS DATA
METEOROLOGISTS LIVE DISCUSSIONS
RECORD BREAKERS!
NEXT 10 DAYS
LIVE DATA
EXACT LOCATIONS
LIVE AMDAR DATA
AIRPORT WEATHER
ROUTE PLANNER WITH WEATHER
60 MEMBER PROBABILITY
60 MEMBER RUN
5 MIN SCANNER
BACK TO 2016
WAY BACK MACHINE
LOADSA IMAGES
BORED? OUR OLD ARTICLES...
OLD CHARTS
OLD CHARTS
PAST MODEL RUNS
30 DAY ARCHIVE
OLD JETS
GLOBAL 7 DAY ARCHIVE
OLD MORNING DISCUSSIONS
BACK TO 2016
OLD SNOW DISCUSSIONS
OLD STORM DISCUSSIONS
DATA BY DATE
DATA BACK TO 2003
BACK TO 2016
BANG! CRASH!
EVERY MATCH FORECAST
WEATHER FOR F1 RACES
WEATHER FOR F1E RACES
FORECASTS AND CALENDAR
BASEBALL FORECASTS
WEATHER FOR MOTOGP
NATWEST T20 BLAST
AMERICAN FOOTBALL
RUGBY WEATHER
RUGBY WEATHER
SCRUM! HAUL!
MORE FOOTBALL
WEATHER FOR BREEDERS CUP
EVERY MATCH FORECAST
HOWZAT?!
COME ON LIONS!
EUROPEAN TOURNAMENT FOOTBALL
TUCKER TRIAL
GIDDY UP
SCRUM! HAUL! IN JAPAN